test/data/GBA.raw
@!IC, SBASE,REV,XFRRAT,NXFRAT,BASFRQ
0,   100.00, 34,     1,     1, 50.00     / PSS(R)E-34.9    SUN, NOV 02 2025  15:03
PICO HÁBIL DIURNO DEL VERANO 25/26 DEMANDA SADI 30960 MW

GENERAL, THRSHZ=0.0001, PQBRAK=0.7, BLOWUP=5.0
GAUSS, ITMX=100, ACCP=1.6, ACCQ=1.6, ACCM=1.0, TOL=0.0001
NEWTON, ITMXN=30, ACCN=1.0, TOLN=0.1, VCTOLQ=0.1, VCTOLV=0.00001, DVLIM=0.99, NDVFCT=0.99
ADJUST, ADJTHR=0.005, ACCTAP=1.0, TAPLIM=0.05, SWVBND=100.0, MXTPSS=99, MXSWIM=10
TYSL, ITMXTY=20, ACCTY=1.0, TOLTY=0.00001
SOLVER, FNSL, ACTAPS=1, AREAIN=0, PHSHFT=0, DCTAPS=1, SWSHNT=1, FLATST=0, VARLIM=0, NONDIV=0
RATING, 1, "RATE1 ", "RATING SET 1                    "
RATING, 2, "RATE2 ", "RATING SET 2                    "
RATING, 3, "RATE3 ", "RATING SET 3                    "
RATING, 4, "RATE4 ", "RATING SET 4                    "
RATING, 5, "RATE5 ", "RATING SET 5                    "
RATING, 6, "RATE6 ", "RATING SET 6                    "
RATING, 7, "RATE7 ", "RATING SET 7                    "
RATING, 8, "RATE8 ", "RATING SET 8                    "
RATING, 9, "RATE9 ", "RATING SET 9                    "
RATING,10, "RATE10", "RATING SET 10                   "
RATING,11, "RATE11", "RATING SET 11                   "
RATING,12, "RATE12", "RATING SET 12                   "
0 / END OF SYSTEM-WIDE DATA, BEGIN BUS DATA
@!   I,'NAME        ', BASKV, IDE,AREA,ZONE,OWNER, VM,        VA,    NVHI,   NVLO,   EVHI,   EVLO
  2018,'ATUCHA 2    ', 500.0000,1,   5,  23,  10,1.00917,  -7.7739,1.10000,0.90000,1.10000,0.90000
  2090,'RAMALLO     ', 500.0000,1,   5,  23,  10,1.02516,  -5.4624,1.10000,0.90000,1.10000,0.90000
  2092,'AES PARA    ', 500.0000,1,   5,  23,  10,1.02700,  -5.2142,1.10000,0.90000,1.10000,0.90000
  2100,'ATUCHA 1    ', 220.0000,1,   5,  23,  10,1.01037, -15.8262,1.10000,0.90000,1.10000,0.90000
  2105,'RAMALLOA    ', 220.0000,1,   5,  23,  10,0.98582, -12.8565,1.10000,0.90000,1.10000,0.90000
  2106,'RAMALLOB    ', 220.0000,1,   5,  23,  10,0.98582, -12.8565,1.10000,0.90000,1.10000,0.90000
  2108,'SNICOLAS    ', 220.0000,1,   5,  23,  10,0.98584, -12.8566,1.10000,0.90000,1.10000,0.90000
  2110,'V. LIA      ', 220.0000,1,   5,  23,  10,1.00655, -17.3092,1.10000,0.90000,1.10000,0.90000
  2268,'LUJANBA1    ', 132.0000,1,   5,  21,   1,0.97201, -28.7973,1.10000,0.90000,1.10000,0.90000
  2269,'LUJANBA2    ', 132.0000,1,   5,  21,  10,0.97201, -28.7973,1.10000,0.90000,1.10000,0.90000
  2270,'LUJAN II    ', 132.0000,1,   5,  21,   1,0.98766, -28.5864,1.10000,0.90000,1.10000,0.90000
  2400,'CTLUJAII    ', 132.0000,1,   5,  21,   4,0.98817, -28.5519,1.10000,0.90000,1.10000,0.90000
  2509,'LUJAN       ',  66.0000,1,   5,  21,   1,1.01687, -31.0444,1.10000,0.90000,1.10000,0.90000
  2536,'LHERAS66    ',  66.0000,1,   5,  21,   1,0.95243, -33.6193,1.10000,0.90000,1.10000,0.90000
  2538,'LOBOS 66    ',  66.0000,1,   5,  21,   1,0.92054, -35.1322,1.10000,0.90000,1.10000,0.90000
  2539,'LOBOS       ',  33.0000,1,   5,  21,   1,0.97244, -31.2890,1.10000,0.90000,1.10000,0.90000
  2604,'SNICBS01    ',   0.4000,2,   5,  23,  15,0.98584, -12.8566,1.10000,0.90000,1.10000,0.90000
  2610,'ATUCNUCL    ',  21.0000,2,   5,  23,   9,1.05000,  -9.1148,1.10000,0.90000,1.10000,0.90000
  2620,'ATU2NUCL    ',  21.0000,3,   5,  23,   9,1.05000,   0.0000,1.10000,0.90000,1.10000,0.90000
  2632,'LUJBTG01    ',  11.5000,2,   5,  21,   4,1.02485, -23.4379,1.10000,0.90000,1.10000,0.90000
  2633,'LUJBTG02    ',  11.5000,2,   5,  21,   4,1.02485, -23.4379,1.10000,0.90000,1.10000,0.90000
  2638,'LOBODI01    ',   0.3800,2,   5,  21,   7,0.99522, -29.8111,1.10000,0.90000,1.10000,0.90000
  2675,'SNICTV15    ',  20.0000,2,   5,  23,   5,0.98584, -12.8566,1.10000,0.90000,1.10000,0.90000
  2692,'AESPTG01    ',  15.0000,2,   5,  23,   8,1.04000,  -3.3119,1.10000,0.90000,1.10000,0.90000
  2693,'AESPTG02    ',  15.0000,2,   5,  23,   8,1.04000,  -3.1924,1.10000,0.90000,1.10000,0.90000
  2694,'AESPTV01    ',  20.0000,2,   5,  23,   8,1.04000,  -1.9542,1.10000,0.90000,1.10000,0.90000
  2833,'RAM.TER4    ',  13.2000,1,   5,  23,  10,0.97970, -13.5366,1.10000,0.90000,1.10000,0.90000
  2837,'SNIC13_01   ',  13.8000,1,   5,  23,  10,0.98584, -12.8566,1.10000,0.90000,1.10000,0.90000
  3000,'EZEIZA      ', 500.0000,1,   4,  10,  10,1.00000, -10.3419,1.10000,0.90000,1.10000,0.90000
  3002,'ABASTO      ', 500.0000,1,   4,  10,  10,0.99269,  -8.4300,1.10000,0.90000,1.10000,0.90000
  3003,'EZBPASS     ', 500.0000,1,   4,  10,  10,0.99126, -10.1959,1.10000,0.90000,1.10000,0.90000
  3004,'RODRGUEZ    ', 500.0000,1,   4,  10,  10,0.98651, -12.0188,1.10000,0.90000,1.10000,0.90000
  3005,'EZE.GENETG01', 500.0000,1,   4,  10,  10,1.00111, -10.1547,1.10000,0.90000,1.10000,0.90000
  3006,'EZE GENETG02', 500.0000,1,   4,  10,  10,1.00111, -10.1547,1.10000,0.90000,1.10000,0.90000
  3007,'EZE GENETV03', 500.0000,1,   4,  10,  10,1.00316,  -9.8458,1.10000,0.90000,1.10000,0.90000
  3100,'ABASTO      ', 220.0000,1,   4,  10,  10,1.00571, -16.8917,1.10000,0.90000,1.10000,0.90000
  3102,'A.BROWN1    ', 220.0000,1,   4,  10,  10,0.99445, -17.1413,1.10000,0.90000,1.10000,0.90000
  3103,'PANTANOSA   ', 220.0000,1,   4,  10,  10,0.99651, -15.8353,1.10000,0.90000,1.10000,0.90000
  3104,'A.BROWN2    ', 220.0000,1,   4,  10,  10,0.99817, -16.4020,1.10000,0.90000,1.10000,0.90000
  3105,'HUDSON      ', 220.0000,1,   4,  10,  10,1.00788, -18.5464,1.10000,0.90000,1.10000,0.90000
  3106,'BOSQUES     ', 220.0000,1,   4,  10,  10,1.00023, -18.4542,1.10000,0.90000,1.10000,0.90000
  3107,'COSTANER1   ', 220.0000,1,   4,  10,  10,1.01093, -20.9251,1.10000,0.90000,1.10000,0.90000
  3108,'COSTANER2   ', 220.0000,1,   4,  10,  10,1.01093, -20.9251,1.10000,0.90000,1.10000,0.90000
  3109,'AZOPARDO    ', 220.0000,1,   4,  10,  10,1.00991, -20.9873,1.10000,0.90000,1.10000,0.90000
  3110,'EZEIZA 2    ', 220.0000,1,   4,  10,  10,1.01672, -13.4065,1.10000,0.90000,1.10000,0.90000
  3111,'PI.TRD 2    ', 220.0000,1,   4,  10,  10,1.00427, -19.1264,1.10000,0.90000,1.10000,0.90000
  3112,'EZEIZA 3    ', 220.0000,1,   4,  10,  10,1.00936, -14.4330,1.10000,0.90000,1.10000,0.90000
  3113,'PI.TRD 3    ', 220.0000,1,   4,  10,  10,1.00424, -19.1314,1.10000,0.90000,1.10000,0.90000
  3114,'EZE-CAS1    ', 220.0000,1,   4,  10,  10,0.99145, -16.3233,1.10000,0.90000,1.10000,0.90000
  3115,'TRANSRAD    ', 220.0000,1,   4,  10,  10,1.00415, -19.1381,1.10000,0.90000,1.10000,0.90000
  3116,'EZE-CAS2    ', 220.0000,1,   4,  10,  10,0.99145, -16.3233,1.10000,0.90000,1.10000,0.90000
  3117,'TRUJUI1     ', 220.0000,1,   4,  10,  10,1.01783, -24.9931,1.10000,0.90000,1.10000,0.90000
  3118,'EZE-PMO1    ', 220.0000,1,   4,  10,  10,1.00870, -19.9272,1.10000,0.90000,1.10000,0.90000
  3119,'EZE-PMO2    ', 220.0000,1,   4,  10,  10,1.00867, -19.9316,1.10000,0.90000,1.10000,0.90000
  3120,'RODRIGU1    ', 220.0000,1,   4,  10,  10,1.02955, -23.7945,1.10000,0.90000,1.10000,0.90000
  3122,'RODRIGU2    ', 220.0000,1,   4,  10,  10,1.02645, -23.6079,1.10000,0.90000,1.10000,0.90000
  3124,'CASANOV1    ', 220.0000,1,   4,  10,  10,0.99008, -16.4395,1.10000,0.90000,1.10000,0.90000
  3125,'ENS.BARRAG_2', 220.0000,1,   4,  10,  10,1.02479, -16.1421,1.10000,0.90000,1.10000,0.90000
  3126,'CASANOV2    ', 220.0000,1,   4,  10,  10,0.99008, -16.4395,1.10000,0.90000,1.10000,0.90000
  3127,'ENS.BARRAG_1', 220.0000,1,   4,  10,  10,1.02479, -16.1421,1.10000,0.90000,1.10000,0.90000
  3128,'LA PLATA    ', 220.0000,1,   4,  10,  10,0.99796, -17.8130,1.10000,0.90000,1.10000,0.90000
  3129,'P1 BAR-HUD  ', 220.0000,1,   4,  10,  10,1.01505, -17.5007,1.10000,0.90000,1.10000,0.90000
  3130,'MALAVER1    ', 220.0000,1,   4,  10,  10,0.99444, -29.8518,1.10000,0.90000,1.10000,0.90000
  3131,'P2 BAR-HUD  ', 220.0000,1,   4,  10,  10,1.01505, -17.5007,1.10000,0.90000,1.10000,0.90000
  3132,'MALAVER2    ', 220.0000,1,   4,  10,  10,1.00080, -21.9011,1.10000,0.90000,1.10000,0.90000
  3133,'TRUJUI2     ', 220.0000,1,   4,  10,  10,1.01981, -25.1406,1.10000,0.90000,1.10000,0.90000
  3134,'MATHEU 1    ', 220.0000,1,   4,  10,  10,1.00442, -26.6532,1.10000,0.90000,1.10000,0.90000
  3135,'A.BROWN2    ', 132.0000,1,   4,  16,   1,0.96742, -25.2548,1.10000,0.90000,1.10000,0.90000
  3136,'MATHEU 2    ', 220.0000,1,   4,  10,  10,1.00442, -26.6532,1.10000,0.90000,1.10000,0.90000
  3137,'ZAPPALO1    ', 220.0000,1,   4,  10,  10,0.99334, -16.1883,1.10000,0.90000,1.10000,0.90000
  3138,'MORON 1     ', 220.0000,1,   4,  10,  10,1.00393, -27.6525,1.10000,0.90000,1.10000,0.90000
  3139,'ZAPPALO2    ', 220.0000,1,   4,  10,  10,0.99642, -15.5595,1.10000,0.90000,1.10000,0.90000
  3140,'MORON 2     ', 220.0000,1,   4,  10,  10,1.00393, -27.6525,1.10000,0.90000,1.10000,0.90000
  3141,'PI.TALAG    ', 220.0000,1,   4,  10,  10,0.99170, -28.7885,1.10000,0.90000,1.10000,0.90000
  3142,'PIQ.MALAVER ', 220.0000,1,   4,  10,  10,0.99542, -29.6353,1.10000,0.90000,1.10000,0.90000
  3143,'PI.TUNAS    ', 220.0000,1,   4,  10,  10,0.99125, -28.8491,1.10000,0.90000,1.10000,0.90000
  3144,'PMORENO1    ', 220.0000,1,   4,  10,  10,1.00839, -20.0356,1.10000,0.90000,1.10000,0.90000
  3145,'PMORENO2    ', 220.0000,1,   4,  10,  10,1.00838, -20.0412,1.10000,0.90000,1.10000,0.90000
  3146,'TALAR       ', 220.0000,1,   4,  10,  10,0.98913, -29.1804,1.10000,0.90000,1.10000,0.90000
  3147,'PI.TALAR    ', 220.0000,1,   4,  10,  10,0.99055, -28.9674,1.10000,0.90000,1.10000,0.90000
  3149,'EDISON      ', 220.0000,1,   4,  15,  10,0.98879, -30.4524,1.10000,0.90000,1.10000,0.90000
  3150,'COLEG220    ', 220.0000,1,   4,  10,  10,0.99345, -30.0946,1.10000,0.90000,1.10000,0.90000
  3160,'PNUE220     ', 220.0000,1,   4,  10,  10,0.99696, -29.7906,1.10000,0.90000,1.10000,0.90000
  3196,'MALVIBA1    ', 132.0000,1,   4,  12,   1,0.98043, -29.3238,1.10000,0.90000,1.10000,0.90000
  3197,'MALVIBA2    ', 132.0000,1,   4,  12,   1,0.98043, -29.3238,1.10000,0.90000,1.10000,0.90000
  3198,'CATONAS1    ', 132.0000,1,   4,  12,   1,0.95718, -30.4376,1.10000,0.90000,1.10000,0.90000
  3199,'CATONAS2    ', 132.0000,1,   4,  12,   1,0.95718, -30.4376,1.10000,0.90000,1.10000,0.90000
  3200,'9 JULIO     ', 132.0000,1,   4,  16,   1,1.02013, -24.1932,1.10000,0.90000,1.10000,0.90000
  3201,'EZEIZA 1    ', 132.0000,1,   4,  10,  10,1.00189, -14.0264,1.10000,0.90000,1.10000,0.90000
  3202,'ALT.LAF1    ', 132.0000,1,   4,  14,   1,0.98450, -21.4290,1.10000,0.90000,1.10000,0.90000
  3204,'ABA.TER1    ', 132.0000,1,   4,  10,  10,0.96308, -16.5926,1.10000,0.90000,1.10000,0.90000
  3205,'EZEIZA 3    ', 132.0000,1,   4,  10,  10,1.00187, -15.0790,1.10000,0.90000,1.10000,0.90000
  3206,'ABA.TER2    ', 132.0000,1,   4,  10,  10,0.96308, -16.5926,1.10000,0.90000,1.10000,0.90000
  3207,'EZE.TER10   ', 132.0000,1,   4,  10,   1,1.01584, -13.6623,1.10000,0.90000,1.10000,0.90000
  3208,'P.I. N1     ', 132.0000,1,   4,  17,   1,0.98783, -28.7488,1.10000,0.90000,1.10000,0.90000
  3209,'EZE1132     ', 132.0000,1,   4,  16,  10,0.97580,  -6.9376,1.10000,0.90000,1.10000,0.90000
  3210,'AGRON.AZ    ', 132.0000,1,   4,   9,   1,0.98338, -37.6673,1.10000,0.90000,1.10000,0.90000
  3211,'ANGELETI    ', 132.0000,1,   4,  16,   1,1.00648, -23.2836,1.10000,0.90000,1.10000,0.90000
  3212,'AGRON.RO    ', 132.0000,1,   4,  15,   1,0.99643, -37.7053,1.10000,0.90000,1.10000,0.90000
  3213,'AUSTRIA     ', 132.0000,1,   4,  15,   1,0.99999, -37.6837,1.10000,0.90000,1.10000,0.90000
  3214,'ALBERDI     ', 132.0000,1,   4,  13,   1,0.96932, -26.8742,1.10000,0.90000,1.10000,0.90000
  3215,'EZE2132     ', 132.0000,1,   4,  16,  10,0.97580,  -6.9376,1.10000,0.90000,1.10000,0.90000
  3216,'A.BROWN1    ', 132.0000,1,   4,  16,   1,1.00660, -23.2648,1.10000,0.90000,1.10000,0.90000
  3217,'MATANZA2    ', 132.0000,1,   4,  13,   1,0.99037, -21.8651,1.10000,0.90000,1.10000,0.90000
  3218,'AUTODRMO    ', 132.0000,1,   4,  13,   1,0.96865, -26.8736,1.10000,0.90000,1.10000,0.90000
  3219,'P.N.CELE    ', 132.0000,1,   4,  18,  10,1.01377, -27.9916,1.10000,0.90000,1.10000,0.90000
  3220,'AZCUENAG    ', 132.0000,1,   4,   9,   1,1.01134, -28.1471,1.10000,0.90000,1.10000,0.90000
  3221,'AZOPARDO II ', 132.0000,1,   4,   9,   1,1.01235, -28.0287,1.10000,0.90000,1.10000,0.90000
  3222,'AZOPA.AZ    ', 132.0000,1,   4,   9,   1,1.02262, -23.9120,1.10000,0.90000,1.10000,0.90000
  3223,'AZOPA.CE    ', 132.0000,1,   4,  18,   1,1.01241, -28.0249,1.10000,0.90000,1.10000,0.90000
  3224,'BANCALAR    ', 132.0000,1,   4,  17,   1,1.01235, -36.1183,1.10000,0.90000,1.10000,0.90000
  3225,'BACHOFEN    ', 132.0000,1,   4,  16,   1,1.00331, -23.6725,1.10000,0.90000,1.10000,0.90000
  3226,'BARRACAS    ', 132.0000,1,   4,  13,   1,1.02103, -24.0471,1.10000,0.90000,1.10000,0.90000
  3227,'GLEW        ', 132.0000,1,   4,  16,   1,1.00604, -23.3915,1.10000,0.90000,1.10000,0.90000
  3228,'BENAVDEZ    ', 132.0000,1,   4,  17,   1,0.98279, -33.7170,1.10000,0.90000,1.10000,0.90000
  3229,'MASCHWIT    ', 132.0000,1,   4,  17,   1,0.99109, -32.8295,1.10000,0.90000,1.10000,0.90000
  3230,'BOSQUES     ', 132.0000,1,   4,  11,  10,1.00759, -23.2249,1.10000,0.90000,1.10000,0.90000
  3231,'ZUCAMOR     ', 132.0000,1,   4,  11,   1,0.99778, -23.9566,1.10000,0.90000,1.10000,0.90000
  3232,'BOULOGNE    ', 132.0000,1,   4,  17,   1,1.01212, -36.4171,1.10000,0.90000,1.10000,0.90000
  3233,'URQUIZA     ', 132.0000,1,   4,  15,   1,0.98551, -37.5118,1.10000,0.90000,1.10000,0.90000
  3234,'BOUL-EDI    ', 132.0000,1,   4,  17,  10,1.01422, -36.5094,1.10000,0.90000,1.10000,0.90000
  3235,'3 SARGENTOS ', 132.0000,1,   4,  12,   1,1.01290, -28.0278,1.10000,0.90000,1.10000,0.90000
  3236,'BURZACO     ', 132.0000,1,   4,  16,   1,1.00522, -23.4157,1.10000,0.90000,1.10000,0.90000
  3237,'BURZACT2    ', 132.0000,1,   4,  16,  10,1.00543, -23.3735,1.10000,0.90000,1.10000,0.90000
  3238,'BURZACT1    ', 132.0000,1,   4,  16,  10,1.00552, -23.3652,1.10000,0.90000,1.10000,0.90000
  3239,'PI.MONT2    ', 132.0000,1,   4,  16,  10,1.00642, -23.2917,1.10000,0.90000,1.10000,0.90000
  3240,'CABALLIT    ', 132.0000,1,   4,  13,   1,0.96815, -26.9514,1.10000,0.90000,1.10000,0.90000
  3241,'PI.MONT1    ', 132.0000,1,   4,  16,  10,1.00645, -23.2877,1.10000,0.90000,1.10000,0.90000
  3242,'CALCHQBA    ', 132.0000,1,   4,  11,   1,0.99093, -24.5074,1.10000,0.90000,1.10000,0.90000
  3243,'PINEYRO     ', 132.0000,1,   4,  16,   1,1.01993, -24.2077,1.10000,0.90000,1.10000,0.90000
  3244,'CALCHQT     ', 132.0000,1,   4,  11,  10,0.99129, -24.4857,1.10000,0.90000,1.10000,0.90000
  3245,'EMP.COSTA   ', 132.0000,1,   4,  18,  10,1.02258, -23.9115,1.10000,0.90000,1.10000,0.90000
  3246,'CALZADA     ', 132.0000,1,   4,  16,   1,1.00203, -23.6269,1.10000,0.90000,1.10000,0.90000
  3247,'LIBERTAD    ', 132.0000,1,   4,  12,   1,1.00108, -22.7033,1.10000,0.90000,1.10000,0.90000
  3248,'CANUELAS    ', 132.0000,1,   4,  16,   1,0.96034,  -7.6626,1.10000,0.90000,1.10000,0.90000
  3249,'PI-CANUE    ', 132.0000,1,   4,  16,  10,0.97895,  -6.8176,1.10000,0.90000,1.10000,0.90000
  3250,'CASEROS     ', 132.0000,1,   4,  12,   1,0.98097, -35.0564,1.10000,0.90000,1.10000,0.90000
  3251,'SEVEL       ', 132.0000,1,   4,  12,   2,0.98199, -34.9964,1.10000,0.90000,1.10000,0.90000
  3252,'CASTELAR    ', 132.0000,1,   4,  12,   1,0.98080, -35.1217,1.10000,0.90000,1.10000,0.90000
  3253,'EMP.PNUEVO  ', 132.0000,1,   4,  18,  10,1.01273, -28.0162,1.10000,0.90000,1.10000,0.90000
  3254,'C.BELL 1    ', 132.0000,1,   4,   8,   1,0.99750, -20.1508,1.10000,0.90000,1.10000,0.90000
  3255,'MATHEU02    ', 132.0000,1,   4,  17,   1,1.00436, -31.5191,1.10000,0.90000,1.10000,0.90000
  3256,'C.BELL 2    ', 132.0000,1,   4,  11,   1,0.99750, -20.1508,1.10000,0.90000,1.10000,0.90000
  3257,'PI2 MACIEL  ', 132.0000,1,   4,  11,  10,1.02127, -24.0676,1.10000,0.90000,1.10000,0.90000
  3258,'CIUDADEL    ', 132.0000,1,   4,  12,   1,0.97920, -35.1689,1.10000,0.90000,1.10000,0.90000
  3259,'BOSQUES2    ', 132.0000,1,   4,  11,  10,0.99365, -23.9398,1.10000,0.90000,1.10000,0.90000
  3260,'COGHLAN     ', 132.0000,1,   4,  15,   1,0.99769, -37.7821,1.10000,0.90000,1.10000,0.90000
  3261,'ZAPPAL02    ', 132.0000,1,   4,  14,  10,1.00417, -22.4294,1.10000,0.90000,1.10000,0.90000
  3262,'COLEG.GR    ', 132.0000,1,   4,  15,   1,0.98715, -37.3799,1.10000,0.90000,1.10000,0.90000
  3263,'SAAVEDRA    ', 132.0000,1,   4,  15,   1,0.98698, -37.3576,1.10000,0.90000,1.10000,0.90000
  3264,'COLEG.RO    ', 132.0000,1,   4,  15,   1,0.99907, -37.7669,1.10000,0.90000,1.10000,0.90000
  3265,'VIDAL       ', 132.0000,1,   4,  15,   1,0.98662, -37.4280,1.10000,0.90000,1.10000,0.90000
  3266,'R.TORRES    ', 132.0000,1,   4,  16,   4,1.00158,  -5.7555,1.10000,0.90000,1.10000,0.90000
  3267,'CONSTIT2    ', 132.0000,1,   4,  13,   1,0.97713, -26.7539,1.10000,0.90000,1.10000,0.90000
  3268,'CORINA      ', 132.0000,1,   4,  16,   1,1.01955, -24.4188,1.10000,0.90000,1.10000,0.90000
  3269,'DIQUE1      ', 132.0000,1,   4,   8,   1,1.01150, -21.4358,1.10000,0.90000,1.10000,0.90000
  3271,'PI1 MACIEL  ', 132.0000,1,   4,  11,  10,1.02127, -24.0676,1.10000,0.90000,1.10000,0.90000
  3272,'COST.AZU    ', 132.0000,1,   4,   9,  10,1.02246, -23.9087,1.10000,0.90000,1.10000,0.90000
  3273,'COST.NAR    ', 132.0000,1,   4,  13,  10,0.98068, -26.6661,1.10000,0.90000,1.10000,0.90000
  3274,'DEL VISO    ', 132.0000,1,   4,  17,   1,0.99201, -32.5918,1.10000,0.90000,1.10000,0.90000
  3275,'PIQ.67      ', 132.0000,1,   4,  11,  10,1.00408, -23.7168,1.10000,0.90000,1.10000,0.90000
  3276,'DEL VIST    ', 132.0000,1,   4,  17,  10,0.99360, -32.4761,1.10000,0.90000,1.10000,0.90000
  3277,'E.T.1       ', 132.0000,1,   4,  11,  10,1.00881, -23.4087,1.10000,0.90000,1.10000,0.90000
  3278,'DIQUE2      ', 132.0000,1,   4,   8,   1,1.00330, -19.7363,1.10000,0.90000,1.10000,0.90000
  3279,'ENSENADA    ', 132.0000,1,   4,   8,  10,1.01498, -21.2639,1.10000,0.90000,1.10000,0.90000
  3280,'DOCK.BLA    ', 132.0000,1,   4,  11,  10,1.00902, -23.3991,1.10000,0.90000,1.10000,0.90000
  3281,'DIQU-YPF    ', 132.0000,1,   4,   8,  10,1.01387, -21.3030,1.10000,0.90000,1.10000,0.90000
  3282,'DOCK.AZ     ', 132.0000,1,   4,  16,  10,1.02153, -24.0422,1.10000,0.90000,1.10000,0.90000
  3283,'YPF-ENSE    ', 132.0000,1,   4,   8,  10,1.01436, -21.2828,1.10000,0.90000,1.10000,0.90000
  3284,'D.BOSCO     ', 132.0000,1,   4,  11,   1,1.01193, -24.7735,1.10000,0.90000,1.10000,0.90000
  3285,'CHARCAS     ', 132.0000,1,   4,  18,   1,1.01178, -28.1094,1.10000,0.90000,1.10000,0.90000
  3286,'BOSCOT      ', 132.0000,1,   4,  11,  10,1.01217, -24.7633,1.10000,0.90000,1.10000,0.90000
  3287,'E.T.6       ', 132.0000,1,   4,  11,  10,1.00288, -23.7957,1.10000,0.90000,1.10000,0.90000
  3288,'E.ECHEVE    ', 132.0000,1,   4,  16,   1,0.96742, -25.2548,1.10000,0.90000,1.10000,0.90000
  3289,'SPEGAZZI    ', 132.0000,1,   4,  16,   1,1.00125,  -5.7861,1.10000,0.90000,1.10000,0.90000
  3290,'EDISO.RO    ', 132.0000,1,   4,  15,   1,0.98824, -37.2940,1.10000,0.90000,1.10000,0.90000
  3291,'TORTUG T    ', 132.0000,1,   4,  17,  10,0.99266, -32.6052,1.10000,0.90000,1.10000,0.90000
  3292,'EDISO.VI    ', 132.0000,1,   4,  17,   1,1.01448, -36.5298,1.10000,0.90000,1.10000,0.90000
  3293,'TORTUGUI    ', 132.0000,1,   4,  17,   1,0.99040, -32.7862,1.10000,0.90000,1.10000,0.90000
  3294,'ESCALADA    ', 132.0000,1,   4,  16,   1,1.01879, -24.5115,1.10000,0.90000,1.10000,0.90000
  3295,'E.T.5       ', 132.0000,1,   4,  11,  10,1.00266, -23.8057,1.10000,0.90000,1.10000,0.90000
  3296,'ESCALAD2    ', 132.0000,1,   4,   9,   1,1.00273, -23.7945,1.10000,0.90000,1.10000,0.90000
  3297,'E.T.2       ', 132.0000,1,   4,  11,  10,1.00072, -23.9469,1.10000,0.90000,1.10000,0.90000
  3298,'E.T.3       ', 132.0000,1,   4,  11,  10,1.00056, -23.9542,1.10000,0.90000,1.10000,0.90000
  3299,'E.T.4       ', 132.0000,1,   4,  11,  10,0.99869, -24.0723,1.10000,0.90000,1.10000,0.90000
  3300,'EZPELETA    ', 132.0000,1,   4,  11,   1,0.99306, -24.3210,1.10000,0.90000,1.10000,0.90000
  3301,'PI SALGUERO1', 132.0000,1,   4,  15,   1,1.00113, -37.6502,1.10000,0.90000,1.10000,0.90000
  3302,'PI SALGUERO2', 132.0000,1,   4,  15,  10,0.99953, -37.7554,1.10000,0.90000,1.10000,0.90000
  3303,'PI DORRE GBA', 132.0000,1,   4,  15,   1,0.99933, -37.7609,1.10000,0.90000,1.10000,0.90000
  3304,'ANIVERSARIO ', 132.0000,1,   4,  17,   1,1.01719, -36.4546,1.10000,0.90000,1.10000,0.90000
  3305,'GEBATV132   ', 132.0000,1,   4,  13,   1,0.97712,  -6.8168,1.10000,0.90000,1.10000,0.90000
  3306,'FC.ROCA     ', 132.0000,1,   4,  16,   1,1.00404, -23.6239,1.10000,0.90000,1.10000,0.90000
  3307,'PIC339 C    ', 132.0000,1,   4,  13,  10,1.02184, -23.9784,1.10000,0.90000,1.10000,0.90000
  3308,'F.VARELA    ', 132.0000,1,   4,  11,   1,0.97960, -24.9388,1.10000,0.90000,1.10000,0.90000
  3309,'PIC339 H    ', 132.0000,1,   4,  13,  10,1.02173, -23.9851,1.10000,0.90000,1.10000,0.90000
  3310,'FORD        ', 132.0000,1,   4,  17,   2,0.98262, -33.7558,1.10000,0.90000,1.10000,0.90000
  3311,'PIC338 H    ', 132.0000,1,   4,  13,  10,1.02173, -23.9851,1.10000,0.90000,1.10000,0.90000
  3312,'GERLI       ', 132.0000,1,   4,  16,   1,1.00185, -23.8953,1.10000,0.90000,1.10000,0.90000
  3313,'PIC338 C    ', 132.0000,1,   4,  13,  10,1.02184, -23.9784,1.10000,0.90000,1.10000,0.90000
  3314,'G.CATAN1    ', 132.0000,1,   4,  14,  10,0.98542, -21.1528,1.10000,0.90000,1.10000,0.90000
...
0 / END OF BUS DATA, BEGIN LOAD DATA
@!   I,'ID',STAT,AREA,ZONE,      PL,        QL,        IP,        IQ,        YP,        YQ, OWNER,SCALE,INTRPT,  DGENP,     DGENQ, DGENF
  2100,'99',   1,   5,  23,    33.276,    86.636,     0.000,     0.000,     0.000,     0.000,  10,    1,  0,     0.000,     0.000,   0
  2106,'99',   1,   5,  23,    58.641,   132.721,     0.000,     0.000,     0.000,     0.000,  10,    1,  0,     0.000,     0.000,   0
  2110,'99',   1,   5,  23,    19.595,    68.947,     0.000,     0.000,     0.000,     0.000,  10,    1,  0,     0.000,     0.000,   0
  2268,'1 ',   1,   5,  21,    69.970,    27.187,     0.000,     0.000,     0.000,     0.000,   1,    1,  0,     0.000,     0.000,   0
  2268,'99',   1,   5,  21,   -59.057,    42.864,     0.000,     0.000,     0.000,     0.000,   1,    1,  0,     0.000,     0.000,   0
  2270,'1 ',   1,   5,  21,    26.439,    10.895,     0.000,     0.000,     0.000,     0.000,   1,    1,  0,     0.000,     0.000,   0
  2509,'1 ',   0,   5,  21,    22.222,    10.410,     0.000,     0.000,     0.000,     0.000,   1,    1,  0,     0.000,     0.000,   0
  2536,'1 ',   1,   5,  21,     7.409,     3.341,     0.000,     0.000,     0.000,     0.000,   1,    1,  0,     0.000,     0.000,   0
  2538,'1 ',   1,   5,  21,    21.210,    12.203,     0.000,     0.000,     0.000,     0.000,   1,    1,  0,     0.000,     0.000,   0
  2610,'1 ',   1,   5,  23,    22.000,    11.000,     0.000,     0.000,     0.000,     0.000,   3,    0,  0,     0.000,     0.000,   0
  2620,'1 ',   1,   5,  23,    45.000,    15.000,     0.000,     0.000,     0.000,     0.000,   3,    0,  0,     0.000,     0.000,   0
  2675,'1 ',   0,   5,  23,    15.000,     7.000,     0.000,     0.000,     0.000,     0.000,   3,    0,  0,     0.000,     0.000,   0
  2692,'1 ',   1,   5,  23,     4.000,     2.000,     0.000,     0.000,     0.000,     0.000,   3,    0,  0,     0.000,     0.000,   0
  2693,'1 ',   1,   5,  23,     4.000,     2.000,     0.000,     0.000,     0.000,     0.000,   3,    0,  0,     0.000,     0.000,   0
  2694,'1 ',   1,   5,  23,    15.000,     7.000,     0.000,     0.000,     0.000,     0.000,   3,    0,  0,     0.000,     0.000,   0
  3000,'99',   1,   4,  10, -1288.068,   -94.234,     0.000,     0.000,     0.000,     0.000,  10,    1,  0,     0.000,     0.000,   0
  3002,'99',   1,   4,  10, -1923.531,   -62.327,     0.000,     0.000,     0.000,     0.000,  10,    1,  0,     0.000,     0.000,   0
  3004,'99',   1,   4,  10,  -768.902,  -681.231,     0.000,     0.000,     0.000,     0.000,  10,    1,  0,     0.000,     0.000,   0
  3117,'1 ',   1,   4,  10,    49.293,    16.600,     0.000,     0.000,     0.000,     0.000,  10,    1,  0,     0.000,     0.000,   0
  3133,'2 ',   1,   4,  10,    49.293,    16.600,     0.000,     0.000,     0.000,     0.000,  10,    1,  0,     0.000,     0.000,   0
  3135,'1 ',   0,   4,  16,    77.499,    40.884,     0.000,     0.000,     0.000,     0.000,   1,    1,  0,     0.000,     0.000,   0
  3196,'1 ',   1,   4,  12,    79.153,    27.811,     0.000,     0.000,     0.000,     0.000,   1,    1,  0,     0.000,     0.000,   0
  3198,'1 ',   1,   4,  12,    52.062,    27.244,     0.000,     0.000,     0.000,     0.000,   1,    1,  0,     0.000,     0.000,   0
  3199,'1 ',   1,   4,  12,    52.062,    27.244,     0.000,     0.000,     0.000,     0.000,   1,    1,  0,     0.000,     0.000,   0
  3200,'1 ',   1,   4,  16,   101.235,    52.155,     0.000,     0.000,     0.000,     0.000,   1,    1,  0,     0.000,     0.000,   0
  3202,'1 ',   1,   4,  14,    18.695,    10.803,     0.000,     0.000,     0.000,     0.000,   1,    1,  0,     0.000,     0.000,   0
  3210,'1 ',   0,   4,   9,    51.855,    30.694,     0.000,     0.000,     0.000,     0.000,   1,    1,  0,     0.000,     0.000,   0
  3210,'2 ',   1,   4,  15,    76.216,    27.811,     0.000,     0.000,     0.000,     0.000,   1,    1,  0,     0.000,     0.000,   0
  3211,'1 ',   1,   4,  16,    81.910,    23.480,     0.000,     0.000,     0.000,     0.000,   1,    1,  0,     0.000,     0.000,   0
  3212,'3 ',   1,   4,  15,    76.216,    27.811,     0.000,     0.000,     0.000,     0.000,   1,    1,  0,     0.000,     0.000,   0
  3213,'1 ',   1,   4,  15,   147.963,    76.228,     0.000,     0.000,     0.000,     0.000,   1,    1,  0,     0.000,     0.000,   0
  3214,'1 ',   1,   4,  13,    95.293,     7.941,     0.000,     0.000,     0.000,     0.000,   1,    1,  0,     0.000,     0.000,   0
  3216,'1 ',   1,   4,  16,    77.499,    40.884,     0.000,     0.000,     0.000,     0.000,   1,    1,  0,     0.000,     0.000,   0
  3217,'1 ',   1,   4,  13,    52.975,    24.063,     0.000,     0.000,     0.000,     0.000,   1,    1,  0,     0.000,     0.000,   0
  3218,'1 ',   1,   4,  13,    63.190,    27.382,     0.000,     0.000,     0.000,     0.000,   1,    1,  0,     0.000,     0.000,   0
  3219,'1 ',   1,   4,  18,    21.998,    11.332,     0.000,     0.000,     0.000,     0.000,   1,    1,  0,     0.000,     0.000,   0
  3220,'1 ',   1,   4,   9,    77.939,    40.154,     0.000,     0.000,     0.000,     0.000,   1,    1,  0,     0.000,     0.000,   0
  3221,'1 ',   1,   4,   9,   142.859,    73.600,     0.000,     0.000,     0.000,     0.000,   1,    1,  0,     0.000,     0.000,   0
  3224,'1 ',   1,   4,  17,    59.783,    30.799,     0.000,     0.000,     0.000,     0.000,   1,    1,  0,     0.000,     0.000,   0
  3225,'1 ',   1,   4,  16,    35.938,    17.370,     0.000,     0.000,     0.000,     0.000,   1,    1,  0,     0.000,     0.000,   0
  3226,'1 ',   1,   4,  13,    42.544,    21.918,     0.000,     0.000,     0.000,     0.000,   1,    1,  0,     0.000,     0.000,   0
  3227,'1 ',   1,   4,  16,    37.615,    19.386,     0.000,     0.000,     0.000,     0.000,   1,    1,  0,     0.000,     0.000,   0
  3228,'1 ',   1,   4,  17,   105.494,    54.349,     0.000,     0.000,     0.000,     0.000,   1,    1,  0,     0.000,     0.000,   0
  3229,'1 ',   1,   4,  17,    72.872,    37.542,     0.000,     0.000,     0.000,     0.000,   1,    1,  0,     0.000,     0.000,   0
  3230,'1 ',   1,   4,  11,    32.395,    16.657,     0.000,     0.000,     0.000,     0.000,   1,    1,  0,     0.000,     0.000,   0
  3231,'1 ',   1,   4,  11,     8.463,     4.360,     0.000,     0.000,     0.000,     0.000,   1,    1,  0,     0.000,     0.000,   0
  3232,'1 ',   1,   4,  17,    86.159,    44.387,     0.000,     0.000,     0.000,     0.000,   1,    1,  0,     0.000,     0.000,   0
  3235,'1 ',   1,   4,  12,    22.700,     7.489,     0.000,     0.000,     0.000,     0.000,   1,    1,  0,     0.000,     0.000,   0
  3240,'1 ',   1,   4,  13,   101.297,    18.206,     0.000,     0.000,     0.000,     0.000,   1,    1,  0,     0.000,     0.000,   0
  3242,'1 ',   1,   4,  11,    98.861,    50.932,     0.000,     0.000,     0.000,     0.000,   1,    1,  0,     0.000,     0.000,   0
  3243,'1 ',   1,   4,  16,    18.190,     3.986,     0.000,     0.000,     0.000,     0.000,   1,    1,  0,     0.000,     0.000,   0
  3246,'1 ',   1,   4,  16,    70.197,    36.165,     0.000,     0.000,     0.000,     0.000,   1,    1,  0,     0.000,     0.000,   0
  3247,'1 ',   1,   4,  12,    45.117,    21.824,     0.000,     0.000,     0.000,     0.000,   1,    1,  0,     0.000,     0.000,   0
  3248,'1 ',   1,   4,  16,    40.175,    20.699,     0.000,     0.000,     0.000,     0.000,   1,    1,  0,     0.000,     0.000,   0
  3250,'1 ',   1,   4,  12,    63.069,    32.493,     0.000,     0.000,     0.000,     0.000,   1,    1,  0,     0.000,     0.000,   0
  3251,'1 ',   1,   4,  12,     9.693,     4.416,     0.000,     0.000,     0.000,     0.000,   2,    0,  0,     0.000,     0.000,   0
  3252,'1 ',   1,   4,  12,   109.442,    56.382,     0.000,     0.000,     0.000,     0.000,   1,    1,  0,     0.000,     0.000,   0
  3254,'1 ',   1,   4,   8,    27.174,     9.480,     0.000,     0.000,     0.000,     0.000,   1,    1,  0,     0.000,     0.000,   0
  3254,'2 ',   1,   4,   8,    28.533,    10.665,     0.000,     0.000,     0.000,     0.000,   1,    1,  0,     0.000,     0.000,   0
  3255,'1 ',   1,   4,  17,    37.976,    14.281,     0.000,     0.000,     0.000,     0.000,   1,    1,  0,     0.000,     0.000,   0
  3256,'1 ',   0,   4,  11,    13.300,     6.400,     0.000,     0.000,     0.000,     0.000,   1,    1,  0,     0.000,     0.000,   0
  3258,'1 ',   1,   4,  12,    69.445,    35.777,     0.000,     0.000,     0.000,     0.000,   1,    1,  0,     0.000,     0.000,   0
  3259,'1 ',   1,   4,  11,    31.698,    16.218,     0.000,     0.000,     0.000,     0.000,   1,    1,  0,     0.000,     0.000,   0
  3259,'2 ',   0,   4,  11,    31.650,    16.234,     0.000,     0.000,     0.000,     0.000,   1,    1,  0,     0.000,     0.000,   0
  3260,'1 ',   1,   4,  15,    68.879,    35.486,     0.000,     0.000,     0.000,     0.000,   1,    1,  0,     0.000,     0.000,   0
  3262,'1 ',   1,   4,  15,   133.294,    68.672,     0.000,     0.000,     0.000,     0.000,   1,    1,  0,     0.000,     0.000,   0
  3263,'1 ',   1,   4,  15,    27.752,    34.691,     0.000,     0.000,     0.000,     0.000,   1,    1,  0,     0.000,     0.000,   0
  3264,'1 ',   0,   4,  15,    53.513,    17.878,     0.000,     0.000,     0.000,     0.000,   1,    1,  0,     0.000,     0.000,   0
  3265,'1 ',   1,   4,  15,    93.306,    48.070,     0.000,     0.000,     0.000,     0.000,   1,    1,  0,     0.000,     0.000,   0
  3267,'1 ',   1,   4,  13,    42.030,     1.646,     0.000,     0.000,     0.000,     0.000,   1,    1,  0,     0.000,     0.000,   0
  3268,'1 ',   1,   4,  16,    52.118,    17.168,     0.000,     0.000,     0.000,     0.000,   1,    1,  0,     0.000,     0.000,   0
  3269,'1 ',   1,   4,   8,    32.722,    17.960,     0.000,     0.000,     0.000,     0.000,   1,    1,  0,     0.000,     0.000,   0
  3274,'1 ',   1,   4,  17,   101.834,    52.464,     0.000,     0.000,     0.000,     0.000,   1,    1,  0,     0.000,     0.000,   0
  3278,'1 ',   1,   4,   8,    65.197,    36.166,     0.000,     0.000,     0.000,     0.000,   1,    1,  0,     0.000,     0.000,   0
  3284,'1 ',   1,   4,  11,    99.982,    51.510,     0.000,     0.000,     0.000,     0.000,   1,    1,  0,     0.000,     0.000,   0
  3285,'1 ',   1,   4,  18,    95.239,    42.885,     0.000,     0.000,     0.000,     0.000,   1,    1,  0,     0.000,     0.000,   0
  3288,'1 ',   1,   4,  16,   123.194,    63.468,     0.000,     0.000,     0.000,     0.000,   1,    1,  0,     0.000,     0.000,   0
  3289,'1 ',   1,   4,  16,    40.041,    20.629,     0.000,     0.000,     0.000,     0.000,   1,    1,  0,     0.000,     0.000,   0
  3290,'1 ',   1,   4,  17,    57.866,    27.734,     0.000,     0.000,     0.000,     0.000,   1,    1,  0,     0.000,     0.000,   0
  3290,'2 ',   1,   4,  15,   129.287,    58.075,     0.000,     0.000,     0.000,     0.000,   1,    1,  0,     0.000,     0.000,   0
  3293,'1 ',   1,   4,  17,    74.208,    38.231,     0.000,     0.000,     0.000,     0.000,   1,    1,  0,     0.000,     0.000,   0
  3294,'1 ',   1,   4,  16,   108.529,    22.891,     0.000,     0.000,     0.000,     0.000,   1,    1,  0,     0.000,     0.000,   0
  3296,'1 ',   0,   4,   9,    98.369,    58.369,     0.000,     0.000,     0.000,     0.000,   1,    1,  0,     0.000,     0.000,   0
  3300,'1 ',   1,   4,  11,    96.645,    49.791,     0.000,     0.000,     0.000,     0.000,   1,    1,  0,     0.000,     0.000,   0
  3304,'1 ',   1,   4,  17,    30.687,    16.343,     0.000,     0.000,     0.000,     0.000,   1,    1,  0,     0.000,     0.000,   0
  3306,'1 ',   1,   4,  16,    42.611,    13.269,     0.000,     0.000,     0.000,     0.000,   1,    1,  0,     0.000,     0.000,   0
  3308,'1 ',   1,   4,  11,    71.259,    43.001,     0.000,     0.000,     0.000,     0.000,   1,    1,  0,     0.000,     0.000,   0
  3310,'1 ',   1,   4,  17,    55.320,    21.977,     0.000,     0.000,     0.000,     0.000,   2,    0,  0,     0.000,     0.000,   0
  3312,'1 ',   1,   4,  16,    51.133,    16.851,     0.000,     0.000,     0.000,     0.000,   1,    1,  0,     0.000,     0.000,   0
  3315,'1 ',   1,   4,  13,     0.000,     0.000,     0.000,     0.000,     0.000,     0.000,   1,    1,  0,     0.000,     0.000,   0
  3321,'1 ',   1,   4,  14,    19.243,    10.959,     0.000,     0.000,     0.000,     0.000,   1,    1,  0,     0.000,     0.000,   0
  3323,'1 ',   1,   4,  11,    35.440,    11.391,     0.000,     0.000,     0.000,     0.000,   1,    1,  0,     0.000,     0.000,   0
  3324,'1 ',   1,   4,  15,   113.523,    58.485,     0.000,     0.000,     0.000,     0.000,   1,    1,  0,     0.000,     0.000,   0
  3325,'1 ',   1,   4,  11,     6.098,     0.000,     0.000,     0.000,     0.000,     0.000,   1,    1,  0,     0.000,     0.000,   0
  3328,'1 ',   1,   4,  11,    66.613,    34.426,     0.000,     0.000,     0.000,     0.000,   1,    1,  0,     0.000,     0.000,   0
  3331,'1 ',   1,   4,  11,    44.799,    23.080,     0.000,     0.000,     0.000,     0.000,   1,    1,  0,     0.000,     0.000,   0
  3332,'1 ',   1,   4,  13,    68.094,    35.082,     0.000,     0.000,     0.000,     0.000,   1,    1,  0,     0.000,     0.000,   0
  3336,'1 ',   1,   4,  12,    70.135,    36.132,     0.000,     0.000,     0.000,     0.000,   1,    1,  0,     0.000,     0.000,   0
  3337,'1 ',   1,   4,   8,    25.270,     5.232,     0.000,     0.000,     0.000,     0.000,   1,    1,  0,     0.000,     0.000,   0
  3338,'1 ',   1,   4,  14,    88.502,    44.954,     0.000,     0.000,     0.000,     0.000,   1,    1,  0,     0.000,     0.000,   0
  3339,'1 ',   1,   4,  14,    42.244,    16.552,     0.000,     0.000,     0.000,     0.000,   1,    1,  0,     0.000,     0.000,   0
  3340,'1 ',   1,   4,   9,   168.828,    86.976,     0.000,     0.000,     0.000,     0.000,   1,    1,  0,     0.000,     0.000,   0
  3341,'1 ',   1,   4,  14,    36.487,    14.551,     0.000,     0.000,     0.000,     0.000,   1,    1,  0,     0.000,     0.000,   0
  3342,'1 ',   1,   4,  12,    27.982,     8.994,     0.000,     0.000,     0.000,     0.000,   1,    1,  0,     0.000,     0.000,   0
  3345,'1 ',   1,   4,   8,    25.270,     5.232,     0.000,     0.000,     0.000,     0.000,   1,    1,  0,     0.000,     0.000,   0
  3347,'1 ',   1,   4,   8,    26.700,    12.200,     0.000,     0.000,     0.000,     0.000,   2,    0,  0,     0.000,     0.000,   0
  3348,'1 ',   1,   4,   8,     7.117,     4.223,     0.000,     0.000,     0.000,     0.000,   2,    0,  0,     0.000,     0.000,   0
  3348,'2 ',   0,   4,   8,    26.700,    12.200,     0.000,     0.000,     0.000,     0.000,   2,    0,  0,     0.000,     0.000,   0
  3350,'1 ',   1,   4,  14,   106.219,    37.387,     0.000,     0.000,     0.000,     0.000,   1,    1,  0,     0.000,     0.000,   0
  3351,'1 ',   1,   4,  12,    21.986,     6.496,     0.000,     0.000,     0.000,     0.000,   1,    1,  0,     0.000,     0.000,   0
  3353,'1 ',   1,   4,   8,    28.700,    14.787,     0.000,     0.000,     0.000,     0.000,   1,    1,  0,     0.000,     0.000,   0
  3354,'1 ',   1,   4,   8,    53.830,    15.258,     0.000,     0.000,     0.000,     0.000,   1,    1,  0,     0.000,     0.000,   0
  3355,'1 ',   1,   4,   8,    53.062,    15.040,     0.000,     0.000,     0.000,     0.000,   1,    1,  0,     0.000,     0.000,   0
  3360,'1 ',   1,   4,  12,   102.575,    31.496,     0.000,     0.000,     0.000,     0.000,   1,    1,  0,     0.000,     0.000,   0
  3363,'1 ',   1,   4,  14,    79.046,    40.512,     0.000,     0.000,     0.000,     0.000,   1,    1,  0,     0.000,     0.000,   0
  3364,'1 ',   1,   4,  17,    49.851,    20.928,     0.000,     0.000,     0.000,     0.000,   1,    1,  0,     0.000,     0.000,   0
  3366,'1 ',   1,   4,  13,    56.362,    17.141,     0.000,     0.000,     0.000,     0.000,   1,    1,  0,     0.000,     0.000,   0
  3368,'1 ',   1,   4,  11,    39.993,    20.604,     0.000,     0.000,     0.000,     0.000,   1,    1,  0,     0.000,     0.000,   0
  3370,'1 ',   1,   4,   8,    12.110,     6.992,     0.000,     0.000,     0.000,     0.000,   1,    1,  0,     0.000,     0.000,   0
  3371,'1 ',   1,   4,  12,   128.045,    65.966,     0.000,     0.000,     0.000,     0.000,   1,    1,  0,     0.000,     0.000,   0
  3374,'1 ',   1,   4,  17,    53.389,    21.503,     0.000,     0.000,     0.000,     0.000,   1,    1,  0,     0.000,     0.000,   0
  3375,'1 ',   1,   4,  17,    38.746,    19.962,     0.000,     0.000,     0.000,     0.000,   1,    1,  0,     0.000,     0.000,   0
  3378,'1 ',   1,   4,  14,     7.805,     2.283,     0.000,     0.000,     0.000,     0.000,   2,    0,  0,     0.000,     0.000,   0
  3379,'1 ',   1,   4,  14,    23.680,    12.200,     0.000,     0.000,     0.000,     0.000,   1,    1,  0,     0.000,     0.000,   0
  3380,'1 ',   1,   4,  12,   139.988,    72.131,     0.000,     0.000,     0.000,     0.000,   1,    1,  0,     0.000,     0.000,   0
  3382,'1 ',   1,   4,  15,    92.635,    39.314,     0.000,     0.000,     0.000,     0.000,   1,    1,  0,     0.000,     0.000,   0
  3384,'1 ',   1,   4,  11,    70.490,    41.885,     0.000,     0.000,     0.000,     0.000,   1,    1,  0,     0.000,     0.000,   0
  3386,'1 ',   1,   4,  12,    79.261,    29.065,     0.000,     0.000,     0.000,     0.000,   1,    1,  0,     0.000,     0.000,   0
  3388,'1 ',   1,   4,  15,   123.915,    63.839,     0.000,     0.000,     0.000,     0.000,   1,    1,  0,     0.000,     0.000,   0
  3390,'1 ',   1,   4,  17,   101.652,    52.369,     0.000,     0.000,     0.000,     0.000,   1,    1,  0,     0.000,     0.000,   0
  3391,'1 ',   1,   4,  15,    28.011,    10.994,     0.000,     0.000,     0.000,     0.000,   1,    1,  0,     0.000,     0.000,   0
  3393,'1 ',   1,   4,  13,    41.082,    16.328,     0.000,     0.000,     0.000,     0.000,   1,    1,  0,     0.000,     0.000,   0
  3398,'1 ',   1,   4,  15,    56.648,    34.339,     0.000,     0.000,     0.000,     0.000,   1,    1,  0,     0.000,     0.000,   0
  3400,'1 ',   1,   4,  13,     0.000,     0.000,     0.000,     0.000,     0.000,     0.000,   1,    1,  0,     0.000,     0.000,   0
  3401,'1 ',   1,   4,  15,    53.294,    32.306,     0.000,     0.000,     0.000,     0.000,   1,    1,  0,     0.000,     0.000,   0
  3402,'1 ',   1,   4,   9,   131.691,    67.845,     0.000,     0.000,     0.000,     0.000,   1,    1,  0,     0.000,     0.000,   0
  3403,'1 ',   1,   4,  13,   102.639,    48.126,     0.000,     0.000,     0.000,     0.000,   1,    1,  0,     0.000,     0.000,   0
  3404,'1 ',   1,   4,  17,    38.266,    18.689,     0.000,     0.000,     0.000,     0.000,   1,    1,  0,     0.000,     0.000,   0
  3405,'1 ',   1,   4,  13,    51.520,     2.518,     0.000,     0.000,     0.000,     0.000,   1,    1,  0,     0.000,     0.000,   0
  3406,'1 ',   1,   4,   8,    46.953,    24.190,     0.000,     0.000,     0.000,     0.000,   1,    1,  0,     0.000,     0.000,   0
  3407,'1 ',   1,   4,   8,    46.953,    24.190,     0.000,     0.000,     0.000,     0.000,   1,    1,  0,     0.000,     0.000,   0
  3408,'1 ',   1,   4,  18,   108.344,    55.819,     0.000,     0.000,     0.000,     0.000,   1,    1,  0,     0.000,     0.000,   0
  3409,'1 ',   1,   4,  18,   103.874,    53.514,     0.000,     0.000,     0.000,     0.000,   1,    1,  0,     0.000,     0.000,   0
  3410,'1 ',   1,   4,  13,   112.725,    20.627,     0.000,     0.000,     0.000,     0.000,   1,    1,  0,     0.000,     0.000,   0
  3413,'1 ',   1,   4,   8,     0.000,     0.000,     0.000,     0.000,     0.000,     0.000,   2,    0,  0,     0.000,     0.000,   0
  3414,'1 ',   1,   4,   8,    11.474,     5.227,     0.000,     0.000,     0.000,     0.000,   2,    0,  0,     0.000,     0.000,   0
  3418,'1 ',   1,   4,   8,    23.647,    10.775,     0.000,     0.000,     0.000,     0.000,   2,    0,  0,     0.000,     0.000,   0
  3419,'1 ',   1,   4,   8,     0.000,     0.000,     0.000,     0.000,     0.000,     0.000,   2,    0,  0,     0.000,     0.000,   0
  3420,'1 ',   1,   4,  17,   107.687,    55.478,     0.000,     0.000,     0.000,     0.000,   1,    1,  0,     0.000,     0.000,   0
  3421,'1 ',   1,   4,   9,    79.869,    41.147,     0.000,     0.000,     0.000,     0.000,   1,    1,  0,     0.000,     0.000,   0
  3422,'1 ',   1,   4,   9,    95.510,    49.205,     0.000,     0.000,     0.000,     0.000,   1,    1,  0,     0.000,     0.000,   0
  3425,'1 ',   1,   4,   8,    14.232,     6.424,     0.000,     0.000,     0.000,     0.000,   2,    0,  0,     0.000,     0.000,   0
  3427,'1 ',   1,   4,  17,    13.643,     3.267,     0.000,     0.000,     0.000,     0.000,   1,    1,  0,     0.000,     0.000,   0
  3431,'1 ',   1,   4,  14,    77.808,    40.085,     0.000,     0.000,     0.000,     0.000,   1,    1,  0,     0.000,     0.000,   0
  3432,'1 ',   1,   4,  11,    96.001,    49.458,     0.000,     0.000,     0.000,     0.000,   1,    1,  0,     0.000,     0.000,   0
  3433,'2 ',   1,   4,   8,    14.232,     6.424,     0.000,     0.000,     0.000,     0.000,   2,    0,  0,     0.000,     0.000,   0
  3434,'1 ',   1,   4,  12,    39.451,    20.259,     0.000,     0.000,     0.000,     0.000,   1,    1,  0,     0.000,     0.000,   0
  3435,'1 ',   1,   4,  14,    25.616,    13.198,     0.000,     0.000,     0.000,     0.000,   1,    1,  0,     0.000,     0.000,   0
  3436,'1 ',   1,   4,  14,    64.168,    32.951,     0.000,     0.000,     0.000,     0.000,   1,    1,  0,     0.000,     0.000,   0
  3438,'1 ',   1,   4,  17,    25.976,    19.424,     0.000,     0.000,     0.000,     0.000,   1,    1,  0,     0.000,     0.000,   0
  3440,'1 ',   1,   4,  17,    24.221,    24.923,     0.000,     0.000,     0.000,     0.000,   1,    1,  0,     0.000,     0.000,   0
  3442,'1 ',   1,   4,   8,    35.216,    18.142,     0.000,     0.000,     0.000,     0.000,   1,    1,  0,     0.000,     0.000,   0
  3443,'1 ',   1,   4,   8,    35.216,    18.142,     0.000,     0.000,     0.000,     0.000,   1,    1,  0,     0.000,     0.000,   0
  3446,'1 ',   1,   4,  16,   128.658,    66.282,     0.000,     0.000,     0.000,     0.000,   1,    1,  0,     0.000,     0.000,   0
  3447,'1 ',   1,   4,  16,    67.208,    34.625,     0.000,     0.000,     0.000,     0.000,   1,    1,  0,     0.000,     0.000,   0
  3448,'1 ',   1,   4,  17,    79.167,    40.786,     0.000,     0.000,     0.000,     0.000,   1,    1,  0,     0.000,     0.000,   0
  3450,'1 ',   1,   4,  14,   121.435,    62.562,     0.000,     0.000,     0.000,     0.000,   1,    1,  0,     0.000,     0.000,   0
  3451,'1 ',   1,   4,  14,    33.725,    14.604,     0.000,     0.000,     0.000,     0.000,   1,    1,  0,     0.000,     0.000,   0
  3452,'1 ',   1,   4,  12,    47.390,    17.696,     0.000,     0.000,     0.000,     0.000,   1,    1,  0,     0.000,     0.000,   0
  3453,'1 ',   1,   4,  12,    72.382,    37.290,     0.000,     0.000,     0.000,     0.000,   1,    1,  0,     0.000,     0.000,   0
  3454,'1 ',   1,   4,  13,    88.013,    45.343,     0.000,     0.000,     0.000,     0.000,   1,    1,  0,     0.000,     0.000,   0
  3456,'1 ',   1,   4,  14,    12.223,     6.297,     0.000,     0.000,     0.000,     0.000,   1,    1,  0,     0.000,     0.000,   0
  3458,'1 ',   1,   4,  11,    73.320,    37.773,     0.000,     0.000,     0.000,     0.000,   1,    1,  0,     0.000,     0.000,   0
  3461,'1 ',   1,   4,  12,    55.478,    15.903,     0.000,     0.000,     0.000,     0.000,   1,    1,  0,     0.000,     0.000,   0
  3462,'1 ',   0,   4,  11,     7.900,     3.800,     0.000,     0.000,     0.000,     0.000,   2,    0,  0,     0.000,     0.000,   0
  3464,'1 ',   1,   4,  11,   133.303,    68.676,     0.000,     0.000,     0.000,     0.000,   1,    1,  0,     0.000,     0.000,   0
  3466,'1 ',   1,   4,  17,   142.230,    64.719,     0.000,     0.000,     0.000,     0.000,   1,    1,  0,     0.000,     0.000,   0
  3467,'1 ',   0,   4,  17,    97.100,    26.800,     0.000,     0.000,     0.000,     0.000,   1,    1,  0,     0.000,     0.000,   0
  3468,'1 ',   1,   4,  14,    33.961,    17.497,     0.000,     0.000,     0.000,     0.000,   1,    1,  0,     0.000,     0.000,   0
  3470,'1 ',   1,   4,  14,    36.412,    18.759,     0.000,     0.000,     0.000,     0.000,   1,    1,  0,     0.000,     0.000,   0
  3471,'1 ',   1,   4,  17,    45.690,    23.537,     0.000,     0.000,     0.000,     0.000,   1,    1,  0,     0.000,     0.000,   0
  3476,'1 ',   1,   4,  16,    61.979,     4.842,     0.000,     0.000,     0.000,     0.000,   1,    1,  0,     0.000,     0.000,   0
  3477,'1 ',   1,   4,  16,    31.861,    12.786,     0.000,     0.000,     0.000,     0.000,   1,    1,  0,     0.000,     0.000,   0
  3478,'1 ',   1,   4,  17,    88.636,    45.665,     0.000,     0.000,     0.000,     0.000,   1,    1,  0,     0.000,     0.000,   0
  3479,'1 ',   1,   4,  17,    26.325,    13.563,     0.000,     0.000,     0.000,     0.000,   1,    1,  0,     0.000,     0.000,   0
  3480,'1 ',   1,   4,   8,    56.969,    26.329,     0.000,     0.000,     0.000,     0.000,   1,    1,  0,     0.000,     0.000,   0
  3482,'2 ',   1,   4,   8,    28.485,    13.170,     0.000,     0.000,     0.000,     0.000,   1,    1,  0,     0.000,     0.000,   0
  3486,'1 ',   1,   4,  16,    40.882,    21.042,     0.000,     0.000,     0.000,     0.000,   1,    1,  0,     0.000,     0.000,   0
  3487,'1 ',   1,   4,  17,    45.501,    18.106,     0.000,     0.000,     0.000,     0.000,  10,    1,  0,     0.000,     0.000,   0
  3488,'1 ',   1,   4,   8,     7.993,     4.117,     0.000,     0.000,     0.000,     0.000,   1,    1,  0,     0.000,     0.000,   0
  3488,'99',   1,   4,   8,   -10.812,    28.706,     0.000,     0.000,     0.000,     0.000,   1,    1,  0,     0.000,     0.000,   0
  3489,'1 ',   1,   4,  14,    42.952,    20.580,     0.000,     0.000,     0.000,     0.000,   1,    1,  0,     0.000,     0.000,   0
  3490,'1 ',   1,   4,  17,    77.918,    40.143,     0.000,     0.000,     0.000,     0.000,   1,    1,  0,     0.000,     0.000,   0
  3492,'1 ',   1,   4,  17,    94.115,    48.488,     0.000,     0.000,     0.000,     0.000,   1,    1,  0,     0.000,     0.000,   0
  3494,'1 ',   1,   4,  15,    39.710,    23.028,     0.000,     0.000,     0.000,     0.000,   1,    1,  0,     0.000,     0.000,   0
  3496,'1 ',   1,   4,  15,    39.750,    23.028,     0.000,     0.000,     0.000,     0.000,   1,    1,  0,     0.000,     0.000,   0
  3498,'1 ',   1,   4,  15,    40.786,    21.011,     0.000,     0.000,     0.000,     0.000,   1,    1,  0,     0.000,     0.000,   0
  3499,'1 ',   1,   4,  15,    38.371,    19.768,     0.000,     0.000,     0.000,     0.000,   1,    1,  0,     0.000,     0.000,   0
  3508,'1 ',   1,   4,  11,    31.650,    16.306,     0.000,     0.000,     0.000,     0.000,   1,    1,  0,     0.000,     0.000,   0
  3522,'1 ',   1,   4,  18,    12.653,     7.477,     0.000,     0.000,     0.000,     0.000,   1,    1,  0,     0.000,     0.000,   0
...
0 / END OF LOAD DATA, BEGIN FIXED SHUNT DATA
@!   I,'ID',STATUS,  GL,        BL
  3213,'1 ',1,     0.000,    24.000
  3224,'1 ',1,     0.000,    12.000
  3229,'1 ',1,     0.000,    12.000
  3232,'1 ',1,     0.000,    12.000
  3260,'1 ',1,     0.000,    12.000
  3293,'1 ',1,     0.000,    12.000
  3294,'1 ',1,     0.000,    14.400
  3294,'3 ',1,    48.000,     0.000
  3336,'1 ',1,     0.000,     6.000
  3338,'1 ',1,     0.000,    24.000
  3350,'1 ',1,     0.000,    12.000
  3360,'1 ',1,     0.000,    12.000
  3375,'1 ',1,     0.000,    12.000
  3380,'1 ',1,     0.000,    18.000
  3382,'1 ',1,     0.000,    24.000
  3410,'1 ',1,     0.000,     9.600
  3448,'1 ',1,     0.000,    12.000
  3453,'1 ',1,     0.000,    12.000
  3466,'1 ',1,     0.000,    12.000
  3467,'1 ',1,     0.000,    12.000
  3471,'1 ',1,     0.000,    12.000
  3478,'1 ',1,     0.000,    12.000
  3726,'1 ',1,     0.000,    12.000
  3741,'1 ',1,     0.000,    18.000
0 / END OF FIXED SHUNT DATA, BEGIN GENERATOR DATA
@!   I,'ID',      PG,        QG,        QT,        QB,     VS,    IREG,     MBASE,     ZR,         ZX,         RT,         XT,     GTAP,STAT, RMPCT,      PT,        PB,    O1,    F1,  O2,    F2,  O3,    F3,  O4,    F4,WMOD, WPF,NREG
  2604,'1 ',     0.000,     0.000,     0.000,     0.000,1.00000,  2604,    16.000, 0.00000E+0, 9.99900E+3, 0.00000E+0, 0.00000E+0,1.00000,0,  100.0,    16.000,   -16.000,   1,1.0000,   0,   1.0,   0,   1.0,   0,   1.0, 1, 1.0000
  2610,'1 ',   350.000,   140.316,   216.000,   -79.200,1.05000,  2610,   440.000, 0.00000E+0, 2.60000E-1, 0.00000E+0, 0.00000E+0,1.00000,1,  100.0,   362.000,    74.000,   9,1.0000
  2620,'1 ',   740.780,   270.372,   340.000,  -100.000,1.05000,  2620,   838.000, 0.00000E+0, 3.60000E-1, 0.00000E+0, 0.00000E+0,1.00000,1,  100.0,   745.000,   160.000,   1,1.0000
  2632,'1 ',    60.000,    41.150,    41.150,   -23.680,1.05000,  2632,    77.647, 0.00000E+0, 1.96000E-1, 0.00000E+0, 0.00000E+0,1.00000,1,  100.0,    66.000,     0.000,   4,1.0000
  2633,'2 ',    60.000,    41.150,    41.150,   -23.680,1.05000,  2633,    77.647, 0.00000E+0, 1.96000E-1, 0.00000E+0, 0.00000E+0,1.00000,1,  100.0,    66.000,     0.000,   4,1.0000
  2638,'1 ',    12.000,    11.055,    11.055,     0.000,1.05000,  2638,    20.100, 0.00000E+0, 1.58000E-1, 0.00000E+0, 0.00000E+0,1.00000,1,  100.0,    15.400,     0.000,   7,1.0000
  2675,'5 ',   250.000,   153.204,   184.843,   -54.972,1.05000,  2675,   412.000, 0.00000E+0, 1.50000E-1, 0.00000E+0, 0.00000E+0,1.00000,0,  100.0,   350.000,    70.000,   5,1.0000
  2692,'1 ',   230.000,    91.103,   180.000,   -31.500,1.04000,  2692,   309.000, 0.00000E+0, 2.23000E-1, 0.00000E+0, 0.00000E+0,1.00000,1,  100.0,   262.980,    70.000,   8,1.0000
  2693,'2 ',   240.000,    91.585,   180.000,   -31.500,1.04000,  2693,   309.000, 0.00000E+0, 2.23000E-1, 0.00000E+0, 0.00000E+0,1.00000,1,  100.0,   262.982,    70.000,   8,1.0000
  2694,'3 ',   206.000,    54.941,   198.000,  -108.000,1.04000,  2694,   375.600, 0.00000E+0, 2.51000E-1, 0.00000E+0, 0.00000E+0,1.00000,1,  100.0,   319.303,    85.000,   8,1.0000
  3600,'1 ',    28.000,    18.289,    21.000,   -10.500,1.05000,  3600,    35.000, 0.00000E+0, 1.60000E-1, 0.00000E+0, 0.00000E+0,1.00000,1,  100.0,    28.000,     0.000,   7,1.0000
  3601,'1 ',    40.000,    81.365,    85.500,   -11.700,1.05000,  3601,   150.000, 0.00000E+0, 1.57500E-1, 0.00000E+0, 0.00000E+0,1.00000,1,  100.0,   123.000,    24.000,   5,1.0000
  3602,'2 ',    60.000,    34.920,    94.300,   -19.800,1.05000,  3602,   150.000, 0.00000E+0, 1.57500E-1, 0.00000E+0, 0.00000E+0,1.00000,1,  100.0,   116.000,    24.000,   5,1.0000
  3603,'3 ',   112.000,    31.940,    96.000,   -17.400,1.05000,  3603,   150.000, 0.00000E+0, 1.57500E-1, 0.00000E+0, 0.00000E+0,1.00000,0,  100.0,   112.000,    24.000,   5,1.0000
  3605,'5 ',    95.000,    35.860,    94.500,   -18.000,1.05000,  3605,   150.000, 0.00000E+0, 1.57500E-1, 0.00000E+0, 0.00000E+0,1.00000,1,  100.0,   105.000,    24.000,   8,1.0000
  3608,'8 ',   210.000,    76.528,   135.000,   -68.400,1.05000,  3608,   257.000, 0.00000E+0, 2.17000E-1, 0.00000E+0, 0.00000E+0,1.00000,1,  100.0,   218.000,    43.700,   8,1.0000
  3609,'1 ',   231.000,   139.500,   139.500,   -59.500,1.05000,  3609,   311.150, 0.00000E+0, 1.96000E-1, 0.00000E+0, 0.00000E+0,1.00000,1,  100.0,   262.000,   230.000,   8,1.0000
  3610,'2 ',   240.000,    83.875,   139.500,   -59.500,1.05000,  3610,   311.150, 0.00000E+0, 1.96000E-1, 0.00000E+0, 0.00000E+0,1.00000,1,  100.0,   262.000,   230.000,   8,1.0000
  3611,'1 ',   150.000,   128.938,   180.000,  -112.500,1.05000,  3611,   379.480, 0.00000E+0, 2.23000E-1, 0.00000E+0, 0.00000E+0,1.00000,1,  100.0,   327.000,   150.000,   8,1.0000
  3613,'1 ',     8.800,     2.065,     7.297,    -7.297,1.00000,  3613,    13.200, 9.99990E+4, 1.00000E+0, 0.00000E+0, 1.00000E+0,1.00000,1,  100.0,    11.000,     0.000,  12,1.0000,   0,   1.0,   0,   1.0,   0,   1.0, 1, 1.0000
  3617,'1 ',   250.000,    74.240,   166.000,   -90.000,1.05000,  3617,   336.000, 0.00000E+0, 2.11000E-1, 0.00000E+0, 0.00000E+0,1.00000,1,  100.0,   292.000,    70.000,   3,1.0000
  3618,'2 ',   250.000,    74.240,   166.000,   -90.000,1.05000,  3618,   336.000, 0.00000E+0, 2.11000E-1, 0.00000E+0, 0.00000E+0,1.00000,1,  100.0,   292.000,    70.000,   3,1.0000
  3619,'1 ',   250.000,    74.240,   165.000,   -85.000,1.05000,  3619,   346.000, 0.00000E+0, 2.04300E-1, 0.00000E+0, 0.00000E+0,1.00000,1,  100.0,   304.000,    70.000,   1,1.0000
  3620,'1 ',   100.000,    80.000,    80.000,   -56.000,1.05000,  3620,   155.000, 0.00000E+0, 2.70000E-1, 0.00000E+0, 0.00000E+0,1.00000,1,  100.0,   131.750,    10.000,   4,1.0000
  3621,'1 ',    17.000,     8.337,    15.490,   -11.570,1.05000,  3621,    18.700, 0.00000E+0, 1.00000E-1, 0.00000E+0, 0.00000E+0,1.00000,1,  100.0,    17.000,     3.400,   4,1.0000
  3621,'3 ',    17.000,     8.337,    17.930,   -13.400,1.05000,  3621,    21.650, 0.00000E+0, 1.00000E-1, 0.00000E+0, 0.00000E+0,1.00000,1,  100.0,    17.000,     3.400,   4,1.0000
  3631,'1 ',     5.000,     1.119,     4.320,    -2.160,1.05000,  3631,     7.080, 8.70000E-3, 1.16000E-1, 0.00000E+0, 0.00000E+0,1.00000,1,  100.0,     5.600,     0.000,   1,1.0000
  3640,'1 ',    25.000,     8.671,    20.000,   -10.000,1.05000,  3640,    33.700, 0.00000E+0, 2.15000E-1, 0.00000E+0, 0.00000E+0,1.00000,1,  100.0,    27.000,     0.000,   4,1.0000
  3641,'1 ',   210.000,    86.485,   112.500,   -67.500,1.05000,  3641,   230.000, 0.00000E+0, 2.24000E-1, 0.00000E+0, 0.00000E+0,1.00000,1,  100.0,   218.700,     0.000,   8,1.0000
  3642,'2 ',   210.000,    86.485,   112.500,   -67.500,1.05000,  3642,   230.000, 0.00000E+0, 2.24000E-1, 0.00000E+0, 0.00000E+0,1.00000,1,  100.0,   218.700,     0.000,   8,1.0000
  3643,'3 ',   220.000,    89.313,   130.500,   -67.500,1.05000,  3643,   261.000, 0.00000E+0, 1.92000E-1, 0.00000E+0, 0.00000E+0,1.00000,1,  100.0,   236.000,     0.000,   8,1.0000
  3644,'1 ',   210.000,    69.272,   247.500,   -90.000,1.05000,  3644,   390.000, 0.00000E+0, 2.62000E-1, 0.00000E+0, 0.00000E+0,1.00000,1,  100.0,   288.400,    90.000,   8,1.0000
  3645,'1 ',   220.000,    95.296,   197.000,  -100.000,1.05000,  3645,   335.000, 0.00000E+0, 2.62000E-1, 0.00000E+0, 0.00000E+0,1.00000,1,  100.0,   255.200,    80.000,   8,1.0000
  3646,'2 ',   200.000,    67.954,   197.000,  -100.000,1.05000,  3646,   335.000, 0.00000E+0, 2.62000E-1, 0.00000E+0, 0.00000E+0,1.00000,1,  100.0,   255.200,    80.000,   8,1.0000
  3647,'4 ',   170.000,    77.288,   120.000,   -80.000,1.05000,  3647,   195.000, 0.00000E+0, 1.75000E-1, 0.00000E+0, 0.00000E+0,1.00000,1,  100.0,   180.000,    32.000,   4,1.0000
  3648,'1 ',    24.000,    15.773,    20.739,    -6.913,1.05000,  3648,    36.500, 0.00000E+0, 2.25000E-1, 0.00000E+0, 0.00000E+0,1.00000,1,  100.0,    27.650,     0.000,   7,1.0000
  3648,'2 ',     4.800,     3.155,     3.680,    -1.020,1.05000,  3648,     6.000, 0.00000E+0, 1.00000E+0, 0.00000E+0, 0.00000E+0,1.00000,1,  100.0,     4.800,     0.000,   7,1.0000
  3648,'3 ',     2.200,     1.446,     1.840,    -0.510,1.05000,  3648,     3.000, 0.00000E+0, 1.00000E+0, 0.00000E+0, 0.00000E+0,1.00000,1,  100.0,     2.400,     0.000,   7,1.0000
  3650,'1 ',    43.000,    35.635,    35.635,   -15.220,1.05000,  3650,    67.647, 0.00000E+0, 2.37500E-1, 0.00000E+0, 0.00000E+0,1.00000,1,  100.0,    46.000,     0.000,   4,1.0000
  3651,'1 ',     0.000,    12.328,   125.000,  -120.000,1.00000,  3000,   125.000, 0.00000E+0, 1.30000E-1, 0.00000E+0, 0.00000E+0,1.00000,1,  100.0,     0.000,     0.000,  10,1.0000
  3652,'2 ',     0.000,    12.328,   125.000,  -120.000,1.00000,  3000,   125.000, 0.00000E+0, 1.30000E-1, 0.00000E+0, 0.00000E+0,1.00000,1,  100.0,     0.000,     0.000,  10,1.0000
  3653,'3 ',     0.000,    12.328,   125.000,  -120.000,1.00000,  3000,   125.000, 0.00000E+0, 1.30000E-1, 0.00000E+0, 0.00000E+0,1.00000,1,  100.0,     0.000,     0.000,  10,1.0000
  3654,'4 ',     0.000,    12.328,   125.000,  -120.000,1.00000,  3000,   125.000, 0.00000E+0, 1.30000E-1, 0.00000E+0, 0.00000E+0,1.00000,1,  100.0,     0.000,     0.000,  10,1.0000
  3655,'5 ',     0.000,    12.328,   125.000,  -120.000,1.00000,  3000,   125.000, 0.00000E+0, 1.30000E-1, 0.00000E+0, 0.00000E+0,1.00000,1,  100.0,     0.000,     0.000,  10,1.0000
  3656,'6 ',     0.000,    12.328,   125.000,  -120.000,1.00000,  3000,   125.000, 0.00000E+0, 1.30000E-1, 0.00000E+0, 0.00000E+0,1.00000,1,  100.0,     0.000,     0.000,  10,1.0000
  3658,'1 ',   180.000,    91.200,    91.200,   -68.400,1.05000,  3658,   228.000, 0.00000E+0, 2.11000E-1, 0.00000E+0, 0.00000E+0,1.00000,1,  100.0,   193.800,    20.000,   5,1.0000
  3660,'1 ',     5.900,     4.420,     4.420,    -1.470,1.05000,  3660,     7.370, 0.00000E+0, 3.31000E-1, 0.00000E+0, 0.00000E+0,1.00000,1,  100.0,     5.900,     0.000,  13,1.0000
  3665,'5 ',    78.000,    34.419,    72.000,   -24.300,1.05000,  3665,   133.000, 0.00000E+0, 1.40000E-1, 0.00000E+0, 0.00000E+0,1.00000,1,  100.0,   110.000,    22.000,   5,1.0000
  3666,'6 ',   220.000,   121.088,   198.000,   -62.000,1.05000,  3666,   333.000, 0.00000E+0, 2.50000E-1, 0.00000E+0, 0.00000E+0,1.00000,1,  100.0,   250.000,    50.000,   5,1.0000
  3667,'1 ',   230.000,    82.508,   144.000,   -72.000,1.05000,  3667,   303.000, 0.00000E+0, 2.40000E-1, 0.00000E+0, 0.00000E+0,1.00000,1,  100.0,   258.000,    80.000,   8,1.0000
  3668,'2 ',   240.000,   105.682,   144.000,   -72.000,1.05000,  3668,   303.000, 0.00000E+0, 2.40000E-1, 0.00000E+0, 0.00000E+0,1.00000,1,  100.0,   258.000,    80.000,   8,1.0000
  3669,'1 ',   260.000,    77.367,   175.500,   -72.000,1.05000,  3669,   332.600, 0.00000E+0, 2.60000E-1, 0.00000E+0, 0.00000E+0,1.00000,1,  100.0,   282.000,   100.000,   8,1.0000
  3670,'1 ',    12.000,    16.462,    29.160,    -9.720,1.05000,  3670,    48.600, 0.00000E+0, 1.90000E-1, 0.00000E+0, 0.00000E+0,1.00000,1,  100.0,    38.880,     0.000,   7,1.0000
  3673,'1 ',     5.500,     4.420,     4.420,    -1.470,1.05000,  3673,     7.370, 0.00000E+0, 3.31000E-1, 0.00000E+0, 0.00000E+0,1.00000,1,  100.0,     5.900,     0.000,  13,1.0000
  3674,'4 ',    43.000,    35.635,    35.635,   -15.220,1.05000,  3674,    67.650, 0.00000E+0, 2.37500E-1, 0.00000E+0, 0.00000E+0,1.00000,1,  100.0,    46.000,     0.000,   4,1.0000
  3675,'5 ',    40.000,    31.000,    31.000,   -31.000,1.05000,  3675,    67.650, 0.00000E+0, 1.90000E-1, 0.00000E+0, 0.00000E+0,1.00000,1,  100.0,    40.000,     0.000,   4,1.0000
...